examples/national_grid/data/ireland/models/2008/wp2014.raw
<!DOCTYPE HTML PUBLIC "-//W3C//DTD HTML 4.0 Transitional//EN">
<!-- saved from url=(0082)http://www.eirgrid.com/EirgridPortal/uploads/Publications/Winter%20Peak%202014.raw -->
<HTML><HEAD>
<META http-equiv=Content-Type content="text/html; charset=windows-1252">
<META content="MSHTML 6.00.2900.3492" name=GENERATOR></HEAD>
<BODY><PRE>0,   100.00          / PSS/E-30.3    WED, NOV 26 2008  13:39
/ CASE: 2014/2015;  WINTER 01/12/2014; FORECAST STATEMENT 20
/ FS08_SEP08 - MEMO  GALLERY_T;  16:30:56  TUESDAY, SEPTEMBE
    10,'F_M_____    ',  38.0000,1,     0.000,     0.000,   1,   3,1.03348, -16.9982,   2
    11,'FMN_LOOP    ',  38.0000,1,     0.000,     0.000,   1,   1,1.03947, -20.0220,   2
    12,'BEDFORD     ',  38.0000,1,     0.000,     0.000,   1,   1,1.04697, -14.1320,   2
    13,'M_R_____    ',  38.0000,1,     0.000,     0.000,   1,   1,1.03700, -14.2975,   2
    14,'F_I_____    ',  38.0000,1,     0.000,     0.000,   1,   3,1.02304, -12.9881,   2
    15,'I_M_____    ',  38.0000,1,     0.000,     0.000,   1,   1,1.04369, -12.5243,   2
  1021,'ARDNACRU    ', 110.0000,1,     0.000,     0.000,   4,   1,1.02979,  -2.6990,   1
  1041,'AGHADA      ', 110.0000,1,     0.000,     0.000,   3,   1,1.05145,   0.3763,   1
  1042,'AGHADA      ', 220.0000,1,     0.000,     0.000,   3,   1,1.07500,  10.1748,   1
  1052,'AGHADA2     ', 220.0000,1,     0.000,     0.000,   3,   1,1.07500,   2.7712,   1
  1061,'ARIGNA      ', 110.0000,1,     0.000,     0.000,   9,   1,1.05877,  -8.1417,   2
  1062,'AGHADA3     ', 220.0000,1,     0.000,     0.000,   3,   1,1.07500,   2.7712,   1
  1071,'AGANNYGA    ', 110.0000,1,     0.000,     0.000,   4,   1,1.05539,  -4.5569,   1
  1072,'AGHADA4     ', 220.0000,1,     0.000,     0.000,   3,   1,1.07452,  11.6597,   1
  1081,'AHANE       ', 110.0000,1,     0.000,     0.000,   7,   1,1.03497,  -1.7085,   2
  1091,'ADAMSTOW    ', 110.0000,1,     0.000,     0.000,   1,   1,1.05951,  -7.3498,   2
  1101,'ANNER       ', 110.0000,1,     0.000,     0.000,   5,   3,1.00361, -10.3419,   5
  1121,'ARKLOW      ', 110.0000,1,     0.000,     0.000,   6,   1,1.02594,  -9.6512,   1
  1122,'ARKLOW      ', 220.0000,1,     0.000,     0.000,   6,   1,1.04448,  -6.7319,   1
  1131,'ATHEA       ', 110.0000,1,     0.000,     0.000,   7,   5,1.07500,   3.2432,   4
  1141,'ATHLONE     ', 110.0000,1,     0.000,     0.000,   9,   1,1.07534,  -7.4952,   1
  1161,'AUGHINIS    ', 110.0000,1,     0.000,     0.000,   7,   3,1.07500,   3.8958,   1
  1181,'ARVA        ', 110.0000,1,     0.000,     0.000,  10,   1,1.05303, -10.7511,   1
  1201,'ARTANE      ', 110.0000,1,     0.000,     0.000,   1,   1,1.02957, -10.0840,   2
  1221,'ATHY        ', 110.0000,1,     0.000,     0.000,   8,   1,1.02384,  -7.9509,   1
  1231,'BALLYWAT    ', 110.0000,1,     0.000,     0.000,   6,   1,1.03579,  -8.8722,   4
  1241,'BALLYCUM    ', 110.0000,1,     0.000,     0.000,   7,   1,1.03144,  -1.3547,   1
  1251,'BOOLTIAG    ', 110.0000,1,     0.000,     0.000,   4,   1,1.01620,  -4.6296,   2
  1271,'BALTRASN    ', 110.0000,1,     0.000,     0.000,  10,   1,1.04423,  -9.2956,   1
  1281,'BALLYLIC    ', 110.0000,1,     0.000,     0.000,   3,   1,1.02141,  -1.5261,   2
  1301,'BALLYBEG    ', 110.0000,1,     0.000,     0.000,   6,   1,1.01507, -11.2415,   1
  1321,'BLAKE       ', 110.0000,1,     0.000,     0.000,   8,   1,1.01718,  -9.7560,   2
  1331,'BALLYCAD    ', 110.0000,1,     0.000,     0.000,   6,   1,1.03802,  -7.9601,   1
  1341,'BINBANE     ', 110.0000,1,     0.000,     0.000,   9,   1,1.01919, -10.0207,   2
  1351,'BARODA      ', 110.0000,1,     0.000,     0.000,   8,   1,1.01889, -10.2249,   1
  1361,'BALLYDIN    ', 110.0000,1,     0.000,     0.000,   5,   1,1.00515,  -9.8335,   1
  1371,'BALLYMUR    ', 110.0000,1,     0.000,     0.000,   4,   1,1.01091,  -4.7164,   2
  1381,'BARNAHEL    ', 110.0000,1,     0.000,     0.000,   3,   1,1.04298,  -0.4266,   1
  1391,'BARNAHEL    ', 110.0000,1,     0.000,     0.000,   3,   1,1.04494,  -0.8848,   1
  1401,'BELLACOR    ', 110.0000,1,     0.000,     0.000,   9,   1,1.06386, -11.7756,   1
  1421,'BLACKROC    ', 110.0000,1,     0.000,     0.000,   1,   2,1.01339, -12.0386,   2
  1431,'BALLYRAG    ', 110.0000,1,     0.000,     0.000,   6,   1,1.01759,  -8.7698,   1
  1441,'BANDON      ', 110.0000,1,     0.000,     0.000,   3,   1,1.03008,  -2.1267,   1
  1461,'BARRYMOR    ', 110.0000,1,     0.000,     0.000,   5,   1,1.02820,  -2.9777,   2
  1471,'BALGRIFF    ', 110.0000,1,     0.000,     0.000,   1,   1,1.05978,  -7.6405,   2
  1472,'BALGRIFF    ', 220.0000,1,     0.000,     0.000,   1,   1,1.07452,  -4.5140,   2
  1481,'BUTLERST    ', 110.0000,1,     0.000,     0.000,   5,   1,1.00666,  -9.1359,   1
  1501,'BRINNY      ', 110.0000,1,     0.000,     0.000,   3,   1,1.02993,  -2.1354,   5
  1511,'BRINNY      ', 110.0000,1,     0.000,     0.000,   3,   1,1.02994,  -2.1349,   5
  1541,'BANOGE      ', 110.0000,1,     0.000,     0.000,   6,   1,1.02067,  -9.7300,   1
  1571,'BUNBEG      ', 110.0000,1,     0.000,     0.000,   9,   1,0.99200, -11.7728,   2
  1581,'CABRA       ', 110.0000,1,     0.000,     0.000,   1,   2,1.02801, -10.1840,   2
  1601,'CLASHAVO    ', 110.0000,1,     0.000,     0.000,   3,   1,1.04703,   0.3557,   1
  1602,'CLASHAVO    ', 220.0000,1,     0.000,     0.000,   3,   1,1.06009,   5.5655,   1
  1611,'CLONKEEN    ', 110.0000,1,     0.000,     0.000,   7,   1,1.05955,   0.8681,   1
  1621,'COOLROE     ', 110.0000,1,     0.000,     0.000,   3,   1,1.03526,  -0.7454,   1
  1631,'CORDERRY    ', 110.0000,1,     0.000,     0.000,   9,   1,1.06201,  -7.9400,   1
  1641,'CASHLA      ', 110.0000,1,     0.000,     0.000,   9,   1,1.06061,  -4.5361,   1
  1642,'CASHLA      ', 220.0000,1,     0.000,     0.000,   9,   1,1.06044,  -0.0936,   1
  1651,'CLAHANE     ', 110.0000,1,     0.000,     0.000,   7,   5,1.07253,   2.3638,   1
  1661,'CASTLEBA    ', 110.0000,1,     0.000,     0.000,   9,   1,1.05749, -11.2294,   1
  1681,'CARRIGAD    ', 110.0000,1,     0.000,     0.000,   3,   1,1.04233,  -0.2432,   1
  1691,'CENTRAL     ', 110.0000,1,     0.000,     0.000,   1,   1,1.01516, -11.8670,   1
  1701,'CATH_FAL    ', 110.0000,1,     0.000,     0.000,   9,   1,1.05000,  -9.2605,   1
  1711,'CROMCAST    ', 110.0000,1,     0.000,     0.000,   1,   1,1.05884,  -7.7152,   1
  1721,'CAHIR       ', 110.0000,1,     0.000,     0.000,   5,   1,1.01855,  -9.3753,   1
  1731,'CROMCAST    ', 110.0000,1,     0.000,     0.000,   1,   1,1.05884,  -7.7152,   1
  1741,'CARRICKM    ', 110.0000,1,     0.000,     0.000,   2,   2,1.01536, -11.8523,   2
  1742,'CARRICKM    ', 220.0000,1,     0.000,     0.000,   2,   2,1.06653,  -5.1867,   1
  1751,'CARRICKM    ', 110.0000,1,     0.000,     0.000,   2,   1,1.06653,  -5.1867,   1
  1761,'CLIFF       ', 110.0000,1,     0.000,     0.000,   9,   1,1.05296,  -9.1033,   1
  1781,'CASTLEFA    ', 110.0000,1,     0.000,     0.000,   7,   3,1.07464,   3.8782,   5
  1791,'CASTLEFA    ', 110.0000,1,     0.000,     0.000,   7,   3,1.07463,   3.8771,   5
  1801,'COOKSTOW    ', 110.0000,1,     0.000,     0.000,   1,   2,1.05023,  -8.0749,   2
  1811,'COOKSTOW    ', 110.0000,1,     0.000,     0.000,   1,   1,0.99889, -12.9669,   1
  1821,'CLOON       ', 110.0000,1,     0.000,     0.000,   9,   1,1.05521,  -7.3073,   1
  1831,'CAMUS       ', 110.0000,1,     0.000,     0.000,   9,   1,1.03843,  -6.1869,   2
  1841,'CRANE       ', 110.0000,1,     0.000,     0.000,   6,   1,1.02961,  -9.0130,   1
  1851,'CHERRYWO    ', 110.0000,1,     0.000,     0.000,   2,   1,1.01289, -11.9704,   1
  1861,'CARICKON    ', 110.0000,1,     0.000,     0.000,   9,   1,1.05862,  -8.4071,   1
  1871,'COLLEGE     ', 110.0000,1,     0.000,     0.000,   2,   1,1.07066,  -7.8640,   1
  1881,'CHARLEVI    ', 110.0000,1,     0.000,     0.000,   3,   1,0.99913,  -2.6839,   1
  1901,'CARLOW      ', 110.0000,1,     0.000,     0.000,   6,   1,1.02998,  -8.5103,   1
  1921,'COW CROS    ', 110.0000,1,     0.000,     0.000,   3,   1,1.04154,  -0.2703,   1
  1931,'CUNGHILL    ', 110.0000,1,     0.000,     0.000,   9,   1,1.06502,  -9.7343,   4
  1941,'CUSHALIN    ', 110.0000,1,     0.000,     0.000,   8,   1,1.05970,  -7.4219,   1
  1951,'CARROWBE    ', 110.0000,1,     0.000,     0.000,   9,   1,1.04245, -12.0488,   1
  1961,'CASTLEVI    ', 110.0000,1,     0.000,     0.000,   3,   1,1.04005,   0.1401,   1
  1971,'COOMAGEA    ', 110.0000,1,     0.000,     0.000,   7,   1,1.06197,   1.1159,   4
  1981,'CORRACLA    ', 110.0000,1,     0.000,     0.000,   9,   1,1.05048, -11.1540,   1
  1991,'CASTLEDO    ', 110.0000,1,     0.000,     0.000,   6,   1,1.03993,  -8.0634,   1
  2001,'CULLENAG    ', 110.0000,1,     0.000,     0.000,   5,   1,1.01897,  -8.2011,   1
  2002,'CULLENAG    ', 220.0000,1,     0.000,     0.000,   5,   1,1.03962,  -4.9093,   1
  2021,'CITY WES    ', 110.0000,1,     0.000,     0.000,   1,   1,1.04929,  -8.1220,   2
  2031,'CHARLESL    ', 110.0000,1,     0.000,     0.000,   6,   1,1.00955, -12.0176,   1
  2041,'CORDUFF     ', 110.0000,1,     0.000,     0.000,   2,   1,1.07152,  -7.7679,   1
  2042,'CORDUFF     ', 220.0000,1,     0.000,     0.000,   2,   1,1.07441,  -3.9464,   1
  2051,'CORDUFF     ', 110.0000,1,     0.000,     0.000,   2,   1,1.07152,  -7.7679,   1
  2081,'DUNKETTL    ', 110.0000,4,     0.000,     0.000,   3,   1,1.00000,   0.0000,   5
  2101,'DUNDALK     ', 110.0000,1,     0.000,     0.000,  10,   1,1.04200,  -8.6793,   2
  2121,'DRUMLINE    ', 110.0000,1,     0.000,     0.000,   4,   1,1.01233,  -4.6466,   1
  2141,'DUNGARVA    ', 110.0000,1,     0.000,     0.000,   5,   1,1.01832,  -5.8870,   1
  2161,'DOON        ', 110.0000,1,     0.000,     0.000,   5,   1,1.00421, -10.3055,   1
  2181,'DRYBRIDG    ', 110.0000,1,     0.000,     0.000,  10,   1,1.02134, -10.4042,   1
  2202,'DUNSTOWN    ', 220.0000,1,     0.000,     0.000,   2,   7,1.07298,  -4.2654,   1
  2204,'DUNSTOWN    ', 380.0000,1,     0.000,     0.000,   2,   1,1.03301,  -1.7469,   1
  2221,'DUNMANWA    ', 110.0000,1,     0.000,     0.000,   3,   1,1.03089,  -1.4455,   1
  2231,'DERRYBRI    ', 110.0000,1,     0.000,     0.000,   4,   1,1.05957,  -4.3063,   2
  2241,'DALLOW      ', 110.0000,1,     0.000,     0.000,   5,   1,1.05514,  -6.3633,   2
  2251,'DARDISTO    ', 110.0000,1,     0.000,     0.000,   1,   1,1.05923,  -7.7109,   1
  2261,'DERRYIRO    ', 110.0000,1,     0.000,     0.000,   8,   1,1.03416,  -8.9873,   1
  2281,'DALTON      ', 110.0000,1,     0.000,     0.000,   9,   1,1.05145,  -9.8896,   1
  2301,'DUNFIRTH    ', 110.0000,1,     0.000,     0.000,   8,   1,1.03976,  -8.6564,   2
  2321,'DRUMKEEN    ', 110.0000,1,     0.000,     0.000,   9,   1,1.02374, -10.1650,   1
  2361,'ENNIS       ', 110.0000,1,     0.000,     0.000,   4,   1,1.01742,  -4.9050,   1
  2481,'FASS EAS    ', 110.0000,1,     0.000,     0.000,   2,   2,1.00583, -12.3416,   2
  2491,'FASS WES    ', 110.0000,1,     0.000,     0.000,   2,   2,1.00629, -12.3178,   2
  2521,'FLAGFORD    ', 110.0000,1,     0.000,     0.000,   9,   1,1.06033,  -8.2431,   1
  2522,'FLAGFORD    ', 220.0000,1,     0.000,     0.000,   9,   7,1.05503,  -4.7903,   1
  2531,'FINNSTOW    ', 110.0000,1,     0.000,     0.000,   1,   1,1.05957,  -7.3452,   1
  2532,'FINNSTOW    ', 220.0000,1,     0.000,     0.000,   2,   1,1.06951,  -5.2146,   1
  2541,'FRN ST A    ', 110.0000,1,     0.000,     0.000,   1,   2,1.05613,  -9.3926,   2
  2551,'FRN ST B    ', 110.0000,1,     0.000,     0.000,   1,   2,1.05002,  -8.0675,   2
  2561,'FIN_URBA    ', 110.0000,1,     0.000,     0.000,   2,   2,1.03355,  -9.8162,   1
  2562,'FINGLAS     ', 220.0000,1,     0.000,     0.000,   2,   7,1.07500,  -4.1928,   1
  2571,'FIN_RURA    ', 110.0000,1,     0.000,     0.000,   2,   2,1.05896,  -7.6699,   1
  2581,'FIN_SUBU    ', 110.0000,1,     0.000,     0.000,   2,   1,1.07045,  -7.8966,   1
  2591,'FIN_OPEN    ', 110.0000,1,     0.000,     0.000,   2,   1,1.07500,  -4.1928,   2
  2671,'GARVAGH     ', 110.0000,1,     0.000,     0.000,   9,   1,1.06709,  -7.7529,   4
  2681,'GILRA       ', 110.0000,1,     0.000,     0.000,   9,   3,1.06155,  -8.5389,   2
  2701,'GLASMORE    ', 110.0000,1,     0.000,     0.000,   1,   2,1.03133,  -8.8192,   2
  2721,'GRIFFINR    ', 110.0000,1,     0.000,     0.000,   2,   2,1.04089,  -8.4584,   2
  2731,'GLANLEE     ', 110.0000,1,     0.000,     0.000,   7,   5,1.06209,   1.1322,   4
  2741,'GREAT IS    ', 110.0000,1,     0.000,     0.000,   6,   1,1.01439,  -8.9250,   1
  2742,'GREAT IS    ', 220.0000,1,     0.000,     0.000,   6,   7,1.04319,  -5.5054,   1
  2761,'GRANGE      ', 110.0000,1,     0.000,     0.000,   1,   2,1.05744,  -7.7589,   2
  2771,'GARROW      ', 110.0000,1,     0.000,     0.000,   7,   1,1.06270,   0.9348,   7
  2781,'GALWAY      ', 110.0000,1,     0.000,     0.000,   9,   1,1.04201,  -5.4286,   1
  2801,'GOLAGH      ', 110.0000,1,     0.000,     0.000,   9,   1,1.03684,  -9.6363,   4
  2821,'GORTAWEE    ', 110.0000,1,     0.000,     0.000,   9,   1,1.04970, -11.4966,   1
  2841,'GORMAN      ', 110.0000,1,     0.000,     0.000,  10,   1,1.02582,  -9.7872,   1
  2842,'GORMAN      ', 220.0000,1,     0.000,     0.000,  10,   1,1.04748,  -5.5824,   1
  2852,'GLANAGOW    ', 220.0000,1,     0.000,     0.000,   3,   1,1.07553,   2.8662,   1
  2861,'GRANGE C    ', 110.0000,1,     0.000,     0.000,   1,   1,1.05928,  -7.3629,   2
  2881,'GLENLARA    ', 110.0000,1,     0.000,     0.000,   3,   1,0.98743,  -2.5655,   2
  2941,'HAROLDS     ', 110.0000,1,     0.000,     0.000,   1,   2,1.05634,  -9.3712,   2
  2951,'HEUSTON     ', 110.0000,1,     0.000,     0.000,   1,   1,1.05048,  -8.0465,   1
  2962,'HUNTSTOW    ', 220.0000,1,     0.000,     0.000,   2,   1,1.07579,  -4.1131,   4
  2972,'HUNTSTOW    ', 220.0000,1,     0.000,     0.000,   2,   1,1.07632,  -3.6154,   4
  2981,'HARNETTS    ', 110.0000,1,     0.000,     0.000,   3,   1,1.04138,  -0.3088,   2
  3061,'INISCARR    ', 110.0000,1,     0.000,     0.000,   3,   1,1.03801,  -0.6220,   1
  3081,'INCH_CIT    ', 110.0000,1,     0.000,     0.000,   1,   2,1.05132,  -7.9941,   2
  3082,'INCHICOR    ', 220.0000,1,     0.000,     0.000,   2,   2,1.07319,  -5.2844,   1
  3091,'INCH_COU    ', 110.0000,1,     0.000,     0.000,   1,   1,1.06145,  -7.1859,   2
  3101,'IKERRIN     ', 110.0000,1,     0.000,     0.000,   5,   1,1.01601, -10.6701,   2
  3122,'IRISHTOW    ', 220.0000,1,     0.000,     0.000,   2,   1,1.07500,  -4.4997,   1
  3201,'KNOCKRAH    ', 110.0000,1,     0.000,     0.000,   3,   1,1.04419,   0.6069,   1
  3202,'KNOCKRAH    ', 220.0000,1,     0.000,     0.000,   3,   7,1.05919,   7.3685,   1
  3211,'KNOCKRAH    ', 110.0000,1,     0.000,     0.000,   3,   1,1.04419,   0.6069,   1
  3212,'KNOCKRAH    ', 220.0000,1,     0.000,     0.000,   3,   1,1.06093,   0.8272,   1
  3221,'KILBARRY    ', 110.0000,1,     0.000,     0.000,   3,   1,1.02581,  -1.0877,   1
  3241,'KILTEEL     ', 110.0000,1,     0.000,     0.000,   8,   1,1.02726, -10.3140,   2
  3261,'KILKENNY    ', 110.0000,1,     0.000,     0.000,   6,   1,0.99854, -10.4104,   1
  3281,'KILLONAN    ', 110.0000,1,     0.000,     0.000,   7,   1,1.03548,  -1.6618,   1
  3282,'KILLONAN    ', 220.0000,1,     0.000,     0.000,   7,   7,1.04354,   1.7247,   1
  3301,'KNOCKERA    ', 110.0000,1,     0.000,     0.000,   7,   1,1.04654,   0.0618,   1
  3321,'KNOCKUMB    ', 110.0000,1,     0.000,     0.000,  10,   3,1.01702, -10.3412,   5
  3341,'KELLIS      ', 110.0000,1,     0.000,     0.000,   6,   1,1.03580,  -8.4067,   1
  3342,'KELLIS      ', 220.0000,1,     0.000,     0.000,   6,   1,1.04063,  -5.8569,   1
  3361,'KILTOY      ', 110.0000,1,     0.000,     0.000,   9,   3,1.01597, -10.7574,   5
  3381,'KINNEGAD    ', 110.0000,1,     0.000,     0.000,   8,   1,1.03406,  -9.0648,   1
  3401,'KILLOTER    ', 110.0000,1,     0.000,     0.000,   5,   1,1.00853,  -9.1050,   1
  3421,'KILMORE     ', 110.0000,1,     0.000,     0.000,   1,   1,1.05883,  -7.7148,   2
  3431,'KILMAHUD    ', 110.0000,1,     0.000,     0.000,   1,   1,1.05900,  -7.3795,   1
  3441,'KILMURRY    ', 110.0000,1,     0.000,     0.000,   6,   1,1.00816,  -9.3453,   1
  3451,'KENTSTOW    ', 110.0000,1,     0.000,     0.000,  10,   1,1.02033, -10.2219,   1
  3501,'LANESBOR    ', 110.0000,1,     0.000,     0.000,   9,   1,1.06702,  -8.1285,   1
  3521,'LOUTH       ', 110.0000,1,     0.000,     0.000,  10,   1,1.06865,  -7.7135,   1
  3522,'LOUTH       ', 220.0000,1,     0.000,     0.000,  10,   7,1.04771,  -4.0805,   1
  3541,'LIMERICK    ', 110.0000,1,     0.000,     0.000,   7,   1,1.02872,  -1.7805,   1
  3551,'LAOIS       ', 110.0000,1,     0.000,     0.000,   8,   1,1.03614,  -6.7486,   1
  3554,'LAOIS       ', 380.0000,1,     0.000,     0.000,   8,   1,1.04224,  -0.8948,   1
  3561,'LISDRUM     ', 110.0000,1,     0.000,     0.000,  10,   1,1.06697, -10.9961,   1
  3572,'LONGPOIN    ', 220.0000,1,     0.000,     0.000,   3,   1,1.07500,  11.7352,   1
  3581,'LETTERKE    ', 110.0000,1,     0.000,     0.000,   9,   1,1.01595, -10.7571,   1
  3601,'LIBERTY     ', 110.0000,1,     0.000,     0.000,   3,   1,1.02626,  -1.2872,   2
  3611,'LIBERTY     ', 110.0000,1,     0.000,     0.000,   3,   1,1.02663,  -1.2788,   2
  3621,'LISHEEN     ', 110.0000,1,     0.000,     0.000,   5,   1,1.00705, -12.2479,   5
  3641,'LODGEWOO    ', 110.0000,1,     0.000,     0.000,   6,   1,1.03845,  -8.1127,   1
  3642,'LODGEWOO    ', 220.0000,1,     0.000,     0.000,   6,   1,1.04263,  -6.6177,   1
  3751,'MISERY H    ', 110.0000,1,     0.000,     0.000,   1,   1,1.05706,  -9.3057,   2
  3761,'MACETOWN    ', 110.0000,1,     0.000,     0.000,   1,   2,1.06939,  -7.9522,   1
  3772,'CAVAN       ', 220.0000,1,     0.000,     0.000,  10,   1,1.04824,  -2.7290,   1
  3774,'CAVAN       ', 380.0000,1,     0.000,     0.000,  10,   1,1.04025,   0.0510,   1
  3781,'MCDERMOT    ', 110.0000,1,     0.000,     0.000,   1,   2,1.02810, -10.1711,   2
  3801,'MIDLETON    ', 110.0000,1,     0.000,     0.000,   3,   1,1.03514,  -0.0159,   1
  3821,'MEATH HI    ', 110.0000,1,     0.000,     0.000,  10,   1,1.03789,  -9.0569,   2
  3841,'MAYNOOTH    ', 110.0000,1,     0.000,     0.000,   2,   2,1.04376,  -8.2979,   1
  3842,'MAYNOOTH    ', 220.0000,1,     0.000,     0.000,   2,   7,1.06492,  -5.2633,   1
  3851,'MAYNOOTH    ', 110.0000,1,     0.000,     0.000,   2,   2,1.05349,  -7.6009,   1
...
0 / END OF BUS DATA, BEGIN LOAD DATA
    10,'LD',1,   1,   1,    92.690,    23.410,     0.000,     0.000,     0.000,     0.000,   2
    11,'LD',1,   1,   1,   134.050,    30.320,     0.000,     0.000,     0.000,     0.000,   2
    12,'LD',1,   1,   1,    60.280,     3.410,     0.000,     0.000,     0.000,     0.000,   2
    13,'LD',1,   1,   1,    64.330,    24.520,     0.000,     0.000,     0.000,     0.000,   2
    14,'LD',1,   1,   1,    66.650,    30.770,     0.000,     0.000,     0.000,     0.000,   2
    15,'LD',1,   1,   1,    72.930,    40.230,     0.000,     0.000,     0.000,     0.000,   2
  1041,'LD',1,   3,   1,     1.860,     0.610,     0.000,     0.000,     0.000,     0.000,   2
  1101,'DM',1,   5,   2,    11.000,     3.840,     0.000,     0.000,     0.000,     0.000,   5
  1101,'MI',0,   5,   2,     5.620,     1.680,     0.000,     0.000,     0.000,     0.000,   5
  3621,'DM',1,   5,   2,    19.000,     6.200,     0.000,     0.000,     0.000,     0.000,   5
  4341,'DM',1,   3,   2,     0.280,     0.100,     0.000,     0.000,     0.000,     0.000,   5
 10204,'LD',1,   4,   1,    14.230,     8.780,     0.000,     0.000,     0.000,     0.000,   2
 10205,'LD',1,   4,   1,    86.780,    37.090,     0.000,     0.000,     0.000,     0.000,   2
 10471,'HL',1,   3,   1,    11.990,     4.310,     0.000,     0.000,     0.000,     0.000,   3
 10475,'HL',0,   3,   1,     0.300,     0.100,     0.000,     0.000,     0.000,     0.000,   3
 10602,'LD',1,   9,   1,     6.900,     2.270,     0.000,     0.000,     0.000,     0.000,   2
 10801,'LD',1,   7,   1,     7.720,     1.870,     0.000,     0.000,     0.000,     0.000,   2
 10901,'LD',1,   1,   1,     8.050,     2.620,     0.000,     0.000,     0.000,     0.000,   2
 11201,'LD',1,   6,   1,     2.740,     0.750,     0.000,     0.000,     0.000,     0.000,   2
 11204,'LD',1,   6,   1,    39.490,    15.090,     0.000,     0.000,     0.000,     0.000,   2
 11404,'LD',1,   9,   1,    83.060,    23.790,     0.000,     0.000,     0.000,     0.000,   2
 12001,'LD',1,   1,   1,    21.400,     6.540,     0.000,     0.000,     0.000,     0.000,   2
 12202,'LD',1,   8,   1,    23.300,     7.660,     0.000,     0.000,     0.000,     0.000,   2
 12402,'LD',1,   7,   1,    12.460,     3.740,     0.000,     0.000,     0.000,     0.000,   2
 12702,'DM',1,  10,   2,     6.000,     2.000,     0.000,     0.000,     0.000,     0.000,   5
 12702,'LD',1,  10,   1,    18.690,     4.980,     0.000,     0.000,     0.000,     0.000,   2
 12804,'LD',1,   3,   1,    14.960,     5.050,     0.000,     0.000,     0.000,     0.000,   2
 13001,'LD',1,   6,   1,    18.060,     4.310,     0.000,     0.000,     0.000,     0.000,   2
 13204,'LD',1,   8,   1,    39.370,    20.430,     0.000,     0.000,     0.000,     0.000,   2
 13302,'LD',1,   6,   1,     7.470,     2.240,     0.000,     0.000,     0.000,     0.000,   2
 13404,'LD',1,   9,   1,    17.300,    10.090,     0.000,     0.000,     0.000,     0.000,   2
 13501,'DM',1,   8,   2,    19.000,     5.900,     0.000,     0.000,     0.000,     0.000,   5
 13601,'DM',1,   5,   2,     5.900,     1.900,     0.000,     0.000,     0.000,     0.000,   5
 13601,'MI',0,   5,   2,     1.220,     0.360,     0.000,     0.000,     0.000,     0.000,   5
 13604,'LD',1,   5,   1,    14.450,     3.990,     0.000,     0.000,     0.000,     0.000,   2
 13701,'DM',1,   4,   2,    12.200,     4.000,     0.000,     0.000,     0.000,     0.000,   5
 13701,'LD',1,   4,   1,    14.200,     4.360,     0.000,     0.000,     0.000,     0.000,   2
 13802,'LD',1,   3,   1,    31.190,     8.860,     0.000,     0.000,     0.000,     0.000,   2
 13804,'LD',1,   3,   1,    27.380,     7.770,     0.000,     0.000,     0.000,     0.000,   2
 14002,'LD',1,   9,   1,     6.730,     2.540,     0.000,     0.000,     0.000,     0.000,   2
 14204,'LD',1,   1,   1,    45.350,     5.620,     0.000,     0.000,     0.000,     0.000,   2
 14401,'LD',1,   3,   1,    13.650,     4.480,     0.000,     0.000,     0.000,     0.000,   2
 14404,'LD',1,   3,   1,    25.160,     7.570,     0.000,     0.000,     0.000,     0.000,   2
 14604,'LD',1,   5,   1,    31.590,     7.520,     0.000,     0.000,     0.000,     0.000,   2
 14804,'LD',1,   5,   1,    59.550,    15.570,     0.000,     0.000,     0.000,     0.000,   2
 15001,'DM',1,   3,   2,     4.200,     1.400,     0.000,     0.000,     0.000,     0.000,   5
 15001,'MI',0,   3,   2,     1.970,     0.590,     0.000,     0.000,     0.000,     0.000,   5
 15402,'LD',1,   6,   1,    19.560,     6.430,     0.000,     0.000,     0.000,     0.000,   2
 15704,'LD',1,   9,   1,    18.510,     6.140,     0.000,     0.000,     0.000,     0.000,   2
 15801,'LD',1,   1,   1,    22.600,     6.070,     0.000,     0.000,     0.000,     0.000,   2
 16202,'LD',1,   3,   1,    13.330,     3.870,     0.000,     0.000,     0.000,     0.000,   2
 16604,'LD',1,   9,   1,    44.140,    16.050,     0.000,     0.000,     0.000,     0.000,   2
 16901,'LD',1,   1,   1,     7.100,     2.490,     0.000,     0.000,     0.000,     0.000,   2
 17004,'LD',1,   9,   1,    20.950,     7.540,     0.000,     0.000,     0.000,     0.000,   2
 17204,'DM',1,   5,   2,     2.900,     1.000,     0.000,     0.000,     0.000,     0.000,   5
 17204,'LD',1,   5,   1,    27.960,     5.980,     0.000,     0.000,     0.000,     0.000,   2
 17404,'LD',1,   2,   1,   103.520,    21.410,     0.000,     0.000,     0.000,     0.000,   2
 17802,'DM',1,   7,   2,    44.000,    14.500,     0.000,     0.000,     0.000,     0.000,   5
 17802,'MI',0,   7,   2,     5.000,     1.500,     0.000,     0.000,     0.000,     0.000,   5
 18004,'LD',1,   1,   1,    96.750,    26.190,     0.000,     0.000,     0.000,     0.000,   2
 18204,'LD',1,   9,   1,    34.620,    11.370,     0.000,     0.000,     0.000,     0.000,   2
 18304,'LD',1,   9,   1,     6.230,     1.250,     0.000,     0.000,     0.000,     0.000,   2
 18402,'LD',1,   6,   1,     1.530,     2.770,     0.000,     0.000,     0.000,     0.000,   2
 18404,'LD',1,   6,   1,    27.910,    11.870,     0.000,     0.000,     0.000,     0.000,   2
 18501,'LD',1,   2,   1,    33.140,    10.890,     0.000,     0.000,     0.000,     0.000,   2
 18604,'LD',1,   9,   1,    36.630,     9.720,     0.000,     0.000,     0.000,     0.000,   2
 18701,'DM',1,   2,   2,    22.800,     7.500,     0.000,     0.000,     0.000,     0.000,   5
 18701,'LD',1,   2,   1,    19.060,     3.960,     0.000,     0.000,     0.000,     0.000,   2
 18804,'LD',1,   3,   1,    28.120,    11.740,     0.000,     0.000,     0.000,     0.000,   2
 19004,'LD',1,   6,   1,    63.680,    21.560,     0.000,     0.000,     0.000,     0.000,   2
 19204,'LD',1,   3,   1,    25.660,     6.930,     0.000,     0.000,     0.000,     0.000,   2
 19471,'HL',1,   8,   2,     9.900,     3.560,     0.000,     0.000,     0.000,     0.000,   4
 19504,'LD',1,   9,   1,    27.410,     7.470,     0.000,     0.000,     0.000,     0.000,   2
 19601,'LD',1,   3,   1,    23.730,     7.800,     0.000,     0.000,     0.000,     0.000,   2
 20201,'LD',1,   1,   1,    20.730,     7.690,     0.000,     0.000,     0.000,     0.000,   2
 20301,'DM',1,   6,   2,    25.000,     8.190,     0.000,     0.000,     0.000,     0.000,   5
 21004,'LD',1,  10,   1,    61.290,    33.270,     0.000,     0.000,     0.000,     0.000,   2
 21204,'LD',1,   4,   1,    24.290,    14.760,     0.000,     0.000,     0.000,     0.000,   2
 21404,'LD',1,   5,   1,    39.120,     9.340,     0.000,     0.000,     0.000,     0.000,   2
 21604,'LD',1,   5,   1,    42.360,     8.850,     0.000,     0.000,     0.000,     0.000,   2
 21804,'LD',1,  10,   1,   107.920,    31.490,     0.000,     0.000,     0.000,     0.000,   2
 22204,'LD',1,   3,   1,    46.110,    14.480,     0.000,     0.000,     0.000,     0.000,   2
 22404,'LD',1,   5,   1,    18.140,     5.970,     0.000,     0.000,     0.000,     0.000,   2
 22501,'LD',1,   1,   1,     8.430,     2.680,     0.000,     0.000,     0.000,     0.000,   2
 22671,'HL',0,   8,   1,     0.300,     0.100,     0.000,     0.000,     0.000,     0.000,   1
 22672,'HL',0,   8,   1,     0.300,     0.100,     0.000,     0.000,     0.000,     0.000,   1
 22804,'LD',1,   9,   1,    30.020,     9.340,     0.000,     0.000,     0.000,     0.000,   2
 23001,'LD',1,   8,   1,     8.220,     2.700,     0.000,     0.000,     0.000,     0.000,   2
 23601,'LD',1,   4,   1,    15.320,     5.110,     0.000,     0.000,     0.000,     0.000,   2
 23604,'LD',1,   4,   1,    52.070,    14.200,     0.000,     0.000,     0.000,     0.000,   2
 24804,'LD',1,   2,   1,    79.730,    22.690,     0.000,     0.000,     0.000,     0.000,   2
 25604,'LD',1,   2,   1,    92.880,    17.930,     0.000,     0.000,     0.000,     0.000,   2
 26802,'DM',1,   9,   2,    11.870,     3.900,     0.000,     0.000,     0.000,     0.000,   5
 27004,'LD',1,   1,   1,    66.890,    35.640,     0.000,     0.000,     0.000,     0.000,   2
 27204,'LD',1,   2,   1,    74.800,    25.430,     0.000,     0.000,     0.000,     0.000,   2
 27404,'LD',1,   6,   1,    29.360,     9.650,     0.000,     0.000,     0.000,     0.000,   2
 27471,'HL',0,   6,   1,     3.000,     1.080,     0.000,     0.000,     0.000,     0.000,   3
 27472,'HL',0,   6,   1,     3.000,     1.080,     0.000,     0.000,     0.000,     0.000,   3
 27473,'HL',1,   6,   1,     7.990,     2.870,     0.000,     0.000,     0.000,     0.000,   3
 27604,'LD',1,   1,   1,    72.750,    27.910,     0.000,     0.000,     0.000,     0.000,   2
 27801,'LD',1,   9,   1,    17.230,     8.610,     0.000,     0.000,     0.000,     0.000,   2
 27804,'LD',1,   9,   1,    98.680,    38.020,     0.000,     0.000,     0.000,     0.000,   2
 28201,'DM',1,   9,   2,    17.000,     5.600,     0.000,     0.000,     0.000,     0.000,   5
 28201,'MI',0,   9,   2,     3.890,     1.160,     0.000,     0.000,     0.000,     0.000,   5
 28204,'LD',1,   9,   1,    12.460,     3.740,     0.000,     0.000,     0.000,     0.000,   2
 28571,'HL',1,   3,   1,     8.710,     3.130,     0.000,     0.000,     0.000,     0.000,   1
 28601,'DM',1,   1,   2,     5.890,     1.900,     0.000,     0.000,     0.000,     0.000,   5
 28601,'LD',1,   1,   1,    -6.150,    -1.990,     0.000,     0.000,     0.000,     0.000,   2
 28604,'LD',1,   1,   1,    69.890,     6.730,     0.000,     0.000,     0.000,     0.000,   2
 28804,'LD',1,   3,   1,    15.070,     6.390,     0.000,     0.000,     0.000,     0.000,   2
 29401,'LD',1,   1,   1,    30.550,    10.040,     0.000,     0.000,     0.000,     0.000,   2
 29501,'LD',1,   1,   1,     7.100,     2.240,     0.000,     0.000,     0.000,     0.000,   2
 29672,'HL',1,   2,   2,     6.080,     2.190,     0.000,     0.000,     0.000,     0.000,   4
 29801,'LD',1,   3,   1,    11.100,     1.250,     0.000,     0.000,     0.000,     0.000,   2
 30804,'LD',1,   1,   1,    63.910,    23.670,     0.000,     0.000,     0.000,     0.000,   2
 31004,'LD',1,   5,   1,    35.240,    11.590,     0.000,     0.000,     0.000,     0.000,   2
 31271,'HL',1,   2,   2,     6.390,     2.300,     0.000,     0.000,     0.000,     0.000,   4
 32201,'LD',1,   3,   1,    14.350,     4.720,     0.000,     0.000,     0.000,     0.000,   2
 32204,'LD',1,   3,   1,   114.050,    31.110,     0.000,     0.000,     0.000,     0.000,   2
 32404,'LD',1,   8,   1,    41.190,    17.370,     0.000,     0.000,     0.000,     0.000,   2
 32604,'LD',1,   6,   1,    90.070,    38.250,     0.000,     0.000,     0.000,     0.000,   2
 33004,'LD',1,   7,   1,    46.370,    14.700,     0.000,     0.000,     0.000,     0.000,   2
 33201,'DM',1,  10,   2,    24.220,     8.000,     0.000,     0.000,     0.000,     0.000,   5
 33801,'DM',1,   8,   2,    11.730,     3.900,     0.000,     0.000,     0.000,     0.000,   5
 34001,'LD',1,   5,   1,     2.990,     0.510,     0.000,     0.000,     0.000,     0.000,   2
 34201,'DM',1,   1,   2,    22.420,     7.400,     0.000,     0.000,     0.000,     0.000,   5
 34201,'LD',1,   1,   1,    12.630,     2.080,     0.000,     0.000,     0.000,     0.000,   2
 34301,'DM',1,   1,   2,    23.750,     7.800,     0.000,     0.000,     0.000,     0.000,   5
 34404,'LD',1,   6,   1,    23.670,     7.720,     0.000,     0.000,     0.000,     0.000,   2
 34501,'DM',1,  10,   2,     8.800,     2.900,     0.000,     0.000,     0.000,     0.000,   5
 34501,'LD',1,  10,   1,    13.830,     3.740,     0.000,     0.000,     0.000,     0.000,   2
 35004,'LD',1,   9,   1,    16.640,     5.220,     0.000,     0.000,     0.000,     0.000,   2
 35074,'HL',1,   9,   1,     8.100,     2.910,     0.000,     0.000,     0.000,     0.000,   3
 35404,'LD',1,   7,   1,    84.340,    33.260,     0.000,     0.000,     0.000,     0.000,   2
 35604,'LD',1,  10,   1,    34.630,     9.970,     0.000,     0.000,     0.000,     0.000,   2
 35771,'HL',1,   3,   1,    10.800,     3.880,     0.000,     0.000,     0.000,     0.000,   1
 35804,'LD',1,   9,   1,    78.780,    39.480,     0.000,     0.000,     0.000,     0.000,   2
 36001,'LD',1,   3,   1,    25.340,    11.310,     0.000,     0.000,     0.000,     0.000,   2
 37501,'DM',1,   1,   2,     6.180,     2.000,     0.000,     0.000,     0.000,     0.000,   5
 37501,'LD',1,   1,   1,     8.050,     2.640,     0.000,     0.000,     0.000,     0.000,   2
 37601,'LD',1,   2,   1,    40.000,     9.430,     0.000,     0.000,     0.000,     0.000,   2
 37602,'DM',1,   2,   2,     5.000,     1.600,     0.000,     0.000,     0.000,     0.000,   5
 37602,'MI',0,   2,   2,     5.440,     1.630,     0.000,     0.000,     0.000,     0.000,   5
 38001,'LD',1,   3,   1,    11.410,     3.750,     0.000,     0.000,     0.000,     0.000,   2
 38004,'LD',1,   3,   1,    37.620,    12.330,     0.000,     0.000,     0.000,     0.000,   2
 38204,'LD',1,  10,   1,    52.370,    20.160,     0.000,     0.000,     0.000,     0.000,   2
 38601,'LD',1,   1,   1,     9.650,     2.490,     0.000,     0.000,     0.000,     0.000,   2
 38701,'LD',1,   1,   1,     9.650,     2.490,     0.000,     0.000,     0.000,     0.000,   2
 38804,'LD',1,   3,   1,     9.280,     5.460,     0.000,     0.000,     0.000,     0.000,   2
 39471,'HL',1,   4,   1,    18.570,     6.680,     0.000,     0.000,     0.000,     0.000,   3
 39472,'HL',1,   7,   1,    18.570,     6.680,     0.000,     0.000,     0.000,     0.000,   3
 39473,'HL',1,   4,   1,    18.570,     6.680,     0.000,     0.000,     0.000,     0.000,   3
 39601,'LD',1,   3,   1,    25.230,     8.300,     0.000,     0.000,     0.000,     0.000,   2
 39672,'HL',0,   3,   1,     3.000,     1.080,     0.000,     0.000,     0.000,     0.000,   3
 39675,'HL',0,   3,   1,     5.000,     1.800,     0.000,     0.000,     0.000,     0.000,   3
 39801,'DM',1,   7,   2,    25.650,     8.400,     0.000,     0.000,     0.000,     0.000,   5
 40001,'LD',1,   9,   1,    18.060,     4.980,     0.000,     0.000,     0.000,     0.000,   2
 40004,'LD',1,   9,   1,    44.230,    17.300,     0.000,     0.000,     0.000,     0.000,   2
 40204,'LD',1,   3,   1,    27.640,     9.080,     0.000,     0.000,     0.000,     0.000,   2
 40404,'LD',1,   9,   1,    40.610,    10.080,     0.000,     0.000,     0.000,     0.000,   2
 40601,'LD',1,  10,   1,     3.490,     1.120,     0.000,     0.000,     0.000,     0.000,   2
 40602,'DM',1,  10,   2,     7.600,     2.500,     0.000,     0.000,     0.000,     0.000,   5
 40604,'LD',1,  10,   1,    24.850,     7.470,     0.000,     0.000,     0.000,     0.000,   2
 40801,'LD',1,   8,   1,    21.540,     7.090,     0.000,     0.000,     0.000,     0.000,   2
 42004,'LD',1,   8,   1,    41.480,    13.330,     0.000,     0.000,     0.000,     0.000,   2
 42102,'DM',1,   1,   2,     7.220,     2.400,     0.000,     0.000,     0.000,     0.000,   5
 42102,'LD',1,   1,   1,    19.560,     6.430,     0.000,     0.000,     0.000,     0.000,   2
 42204,'LD',1,  10,   1,    75.120,    24.670,     0.000,     0.000,     0.000,     0.000,   2
 42604,'LD',1,   7,   1,    35.500,    11.670,     0.000,     0.000,     0.000,     0.000,   2
 42802,'DM',1,   1,   2,    26.000,     8.500,     0.000,     0.000,     0.000,     0.000,   5
 43604,'LD',1,   7,   1,    32.710,    10.750,     0.000,     0.000,     0.000,     0.000,   2
 44001,'LD',1,   1,   1,    17.280,     5.790,     0.000,     0.000,     0.000,     0.000,   2
 44671,'HL',1,   2,   1,     5.500,     1.980,     0.000,     0.000,     0.000,     0.000,   3
 44672,'HL',1,   2,   1,     4.780,     1.720,     0.000,     0.000,     0.000,     0.000,   3
 44673,'HL',0,   2,   1,    12.990,     4.670,     0.000,     0.000,     0.000,     0.000,   3
 44804,'LD',1,   8,   1,    56.250,    17.180,     0.000,     0.000,     0.000,     0.000,   2
 44901,'DM',1,   1,   2,    20.900,     6.900,     0.000,     0.000,     0.000,     0.000,   5
 44901,'LD',1,   1,   1,    10.290,     2.950,     0.000,     0.000,     0.000,     0.000,   2
 45001,'DM',1,  10,   2,    54.620,    17.100,     0.000,     0.000,     0.000,     0.000,   5
 45101,'LD',1,   1,   1,    18.690,     3.740,     0.000,     0.000,     0.000,     0.000,   2
 46210,'DM',1,   2,   2,    24.000,     7.900,     0.000,     0.000,     0.000,     0.000,   5
 46214,'DM',1,   2,   2,    26.000,     8.500,     0.000,     0.000,     0.000,     0.000,   5
 46224,'DM',1,   2,   2,    31.000,    10.190,     0.000,     0.000,     0.000,     0.000,   5
 46501,'LD',1,   1,   1,    12.740,     4.190,     0.000,     0.000,     0.000,     0.000,   2
 46804,'LD',1,   7,   1,    26.040,     8.850,     0.000,     0.000,     0.000,     0.000,   2
 47004,'LD',1,   9,   1,    41.980,    14.200,     0.000,     0.000,     0.000,     0.000,   2
 47402,'DM',1,   2,   2,    15.200,     5.000,     0.000,     0.000,     0.000,     0.000,   5
 47601,'LD',1,   3,   1,     6.480,     2.130,     0.000,     0.000,     0.000,     0.000,   2
 49474,'HL',1,   5,   1,    11.260,     4.050,     0.000,     0.000,     0.000,     0.000,   3
 49501,'LD',1,   9,   1,    12.460,     3.740,     0.000,     0.000,     0.000,     0.000,   2
 49504,'LD',1,   9,   1,    57.060,    13.700,     0.000,     0.000,     0.000,     0.000,   2
 49604,'LD',1,  10,   1,    78.370,    30.230,     0.000,     0.000,     0.000,     0.000,   2
 49701,'LD',1,   6,   1,    16.200,     4.480,     0.000,     0.000,     0.000,     0.000,   2
 49804,'LD',1,   9,   1,    76.620,    28.140,     0.000,     0.000,     0.000,     0.000,   2
 50004,'LD',1,   9,   1,    33.970,    11.610,     0.000,     0.000,     0.000,     0.000,   2
 50276,'HL',1,   2,   1,     9.990,     3.590,     0.000,     0.000,     0.000,     0.000,   3
 50301,'LD',1,   1,   1,    16.200,     5.320,     0.000,     0.000,     0.000,     0.000,   2
 50573,'HL',1,   7,   2,     0.980,     0.350,     0.000,     0.000,     0.000,     0.000,   4
 50574,'HL',1,   7,   2,     0.980,     0.350,     0.000,     0.000,     0.000,     0.000,   4
 50604,'LD',1,   6,   1,    30.020,    10.200,     0.000,     0.000,     0.000,     0.000,   2
...
0 / END OF LOAD DATA, BEGIN GENERATOR DATA
 10204,'2 ',     0.231,    -0.070,    -0.070,    -0.070,1.04000,     0,     0.895,   0.00000,   0.25400,   0.00000,   0.20000,1.00000,1,  100.0,     0.660,     0.000,   4,1.0000
 10204,'3 ',     2.625,    -0.820,    -0.820,    -0.820,1.04000,     0,     8.625,   0.00000, 999.00000,   0.00000,   0.20000,1.00000,1,  100.0,     7.500,     0.000,   2,1.0000
 10271,'1 ',    21.000,    15.000,    15.000,    -7.000,1.07500,  1021,    34.000,   0.00000,   0.26000,   0.00000,   0.00000,1.00000,1,   15.0,    21.000,     5.000,   3,1.0000
 10272,'2 ',    22.000,    15.000,    15.000,    -7.000,1.07500,  1021,    34.000,   0.00000,   0.26000,   0.00000,   0.00000,1.00000,1,   15.0,    22.000,     5.000,   3,1.0000
 10273,'3 ',    19.000,    15.000,    15.000,    -7.000,1.07500,  1021,    34.000,   0.00000,   0.26000,   0.00000,   0.00000,1.00000,1,   15.0,    19.000,     5.000,   3,1.0000
 10274,'4 ',    24.000,    15.000,    15.000,    -7.000,1.07500,  1021,    34.000,   0.00000,   0.25000,   0.00000,   0.00000,1.00000,1,   15.0,    24.000,     5.000,   3,1.0000
 10471,'1 ',   270.000,    83.444,   153.000,   -53.000,1.07500,  1042,   318.800,   0.00000,   0.26400,   0.00000,   0.00000,1.00000,1,  153.0,   270.000,    40.000,   3,1.0000
 10472,'11',    90.000,     0.000,    60.000,   -30.000,1.07500,  1072,   100.900,   0.00000,   0.14700,   0.00000,   0.00000,1.00000,0,   60.0,    90.000,    20.000,   3,1.0000
 10473,'12',    90.000,     0.000,    60.000,   -30.000,1.07500,  1052,   100.900,   0.00000,   0.14700,   0.00000,   0.00000,1.00000,0,   60.0,    90.000,    20.000,   3,1.0000
 10474,'14',    90.000,     0.000,    60.000,   -30.000,1.07500,  1072,   100.900,   0.00000,   0.14700,   0.00000,   0.00000,1.00000,0,   60.0,    90.000,    20.000,   3,1.0000
 10475,'5 ',    52.300,     0.000,    32.600,   -22.700,1.07500,  1041,    62.000,   0.00000,   0.25400,   0.00000,   0.00000,1.00000,0,   32.6,    52.300,     1.200,   3,1.0000
 10602,'1 ',     0.420,    -0.130,    -0.130,    -0.130,1.04000,     0,     1.380,   0.00000,   0.25400,   0.00000,   0.20000,1.00000,1,  100.0,     1.200,     0.000,   4,1.0000
 10602,'2 ',     1.680,    -0.520,    -0.520,    -0.520,1.04000,     0,     5.520,   0.00000,   0.25400,   0.00000,   0.20000,1.00000,1,  100.0,     4.800,     0.000,   4,1.0000
 10602,'3 ',     1.750,    -0.550,    -0.550,    -0.550,1.04000,     0,     5.750,   0.00000,   0.25400,   0.00000,   0.20000,1.00000,1,  100.0,     5.000,     0.000,   4,1.0000
 10602,'5 ',     1.890,    -2.300,    -1.770,    -2.300,1.04000,     0,     7.050,   0.00000,   0.25400,   0.00000,   0.05640,1.00000,1,  100.0,     5.400,     0.000,   2,1.0000
 11204,'1 ',     8.820,    -2.750,    -2.750,    -2.750,1.04000,     0,    29.000,   0.00000,   0.25400,   0.00000,   0.20000,1.00000,1,  100.0,    25.200,     0.000,   2,1.0000
 11371,'1 ',    23.800,    -6.240,    15.890,   -15.890,1.07500,  1131,    71.875,   0.00000,   0.25400,   0.00000,   0.00000,1.00000,1,  100.0,    68.000,     0.000,   4,1.0000
 11402,'1 ',     1.487,    -1.400,    -1.400,    -1.810,1.04000,     0,     4.475,   0.00000,   0.25400,   0.00000,   0.06000,1.00000,1,  100.0,     4.250,     0.000,   1,1.0000
 12371,'1 ',    14.700,     9.700,     9.700,    -9.700,1.07500,  1231,    42.000,   0.00000,   0.25400,   0.00000,   0.00000,1.00000,1,  100.0,    42.000,     0.000,   4,1.0000
 12571,'1 ',     6.807,     4.490,     4.490,    -4.490,1.07500,  1251,    23.925,   0.00000,   0.25400,   0.00000,   0.00000,1.00000,1,  100.0,    19.450,     0.000,   4,1.0000
 12804,'1 ',     2.975,    -0.930,    -0.930,    -0.930,1.04000,     0,     8.950,   0.00000,   0.25400,   0.00000,   0.20000,1.00000,1,  100.0,     8.500,     0.000,   2,1.0000
 12804,'2 ',     6.842,    -2.140,    -2.140,    -2.140,1.04000,     0,    20.585,   0.00000,   0.25400,   0.00000,   0.20000,1.00000,1,  100.0,    19.550,     0.000,   2,1.0000
 13302,'1 ',     5.057,    -2.010,     2.030,    -3.360,1.00000,     0,    15.215,   0.00000,   0.25400,   0.00000,   0.06000,1.00000,1,  100.0,    14.450,     0.000,   2,1.0000
 13302,'2 ',     1.750,    -0.696,     0.700,    -1.190,1.00000,     0,     5.520,   0.00000,   0.25400,   0.00000,   0.00000,1.00000,1,  100.0,     5.000,     0.000,   2,1.0000
 13312,'1 ',     1.400,    -1.310,    -1.310,    -1.700,1.07500,  1331,     4.700,   0.00000,   0.25400,   0.00000,   0.56400,1.00000,1,  100.0,     4.000,     0.000,   1,1.0000
 13312,'2 ',     1.400,    -1.310,    -1.310,    -1.700,1.07500,  1331,     4.030,   0.00000,   0.25400,   0.00000,   0.06717,1.00000,1,  100.0,     4.000,     0.000,   1,1.0000
 13312,'3 ',     1.260,    -1.180,    -1.180,    -1.530,1.07500,  1331,     3.600,   0.00000,   0.25400,   0.00000,   0.05400,1.00000,1,  100.0,     3.600,     0.000,   1,1.0000
 13312,'4 ',     5.180,     3.430,     3.430,    -3.430,1.07500,  1331,    17.350,   0.00000,   0.25400,   0.00000,   0.05627,1.00000,1,  100.0,    14.800,     0.000,   1,1.0000
 13404,'1 ',     0.231,    -0.070,    -0.070,    -0.070,1.04000,     0,     0.759,   0.00000,   0.25400,   0.00000,   0.20000,1.00000,1,  100.0,     0.660,     0.000,   4,1.0000
 13404,'2 ',     0.893,    -0.280,    -0.280,    -0.280,1.04000,     0,     2.685,   0.00000,   0.25400,   0.00000,   0.20000,1.00000,1,  100.0,     2.550,     0.000,   2,1.0000
 13404,'3 ',     4.165,    -1.300,    -1.300,    -1.300,1.04000,     0,    13.685,   0.00000,   0.25400,   0.00000,   0.20000,1.00000,1,  100.0,    11.900,     0.000,   2,1.0000
 13404,'4 ',     5.250,    -1.640,    -1.640,    -1.640,1.04000,     0,    17.170,   0.00000,   0.25400,   0.00000,   0.20000,1.00000,1,  100.0,    15.000,     0.000,   2,1.0000
 13404,'5 ',     2.100,    -0.660,    -0.660,    -0.660,1.04000,     0,     6.900,   0.00000,   0.25400,   0.00000,   0.20000,1.00000,1,  100.0,     6.000,     0.000,   2,1.0000
 13404,'6 ',     2.678,    -0.840,    -0.840,    -0.840,1.04000,     0,     8.055,   0.00000,   0.25400,   0.00000,   0.20000,1.00000,1,  100.0,     7.650,     0.000,   2,1.0000
 14002,'3 ',     2.257,    -0.700,    -0.700,    -0.700,1.04000,     0,     7.418,   0.00000,   0.25400,   0.00000,   0.10000,1.00000,1,  100.0,     6.450,     0.000,   3,1.0000
 14404,'1 ',     1.575,    -0.490,    -0.490,    -0.490,1.04000,     0,     5.151,   0.00000,   0.25400,   0.00000,   0.20000,1.00000,1,  100.0,     4.500,     0.000,   2,1.0000
 14604,'1 ',     0.000,     0.798,     1.000,    -1.000,1.05000,     0,     7.000,   0.00000,   0.14800,   0.00000,   0.10000,1.00000,1,    1.0,     4.800,     0.000,   5,1.0000
 14804,'1 ',     0.595,    -0.190,    -0.190,    -0.190,1.04000,     0,     1.790,   0.00000,   0.25400,   0.00000,   0.20000,1.00000,1,  100.0,     1.700,     0.000,   4,1.0000
 16371,'1 ',     1.190,    -0.770,     0.490,    -0.770,1.01500, 16302,     3.580,   0.00000,   0.25400,   0.00000,   0.10000,1.00000,1,  100.0,     3.400,     0.000,   1,1.0000
 16372,'2 ',     1.190,    -0.770,     0.490,    -0.770,1.00000,     0,     3.580,   0.00000,   0.25400,   0.00000,   0.10000,1.00000,1,  100.0,     3.400,     0.000,   1,1.0000
 16373,'3 ',     2.380,    -0.801,     0.980,    -1.610,1.01500, 16302,     7.160,   0.00000,   0.25400,   0.00000,   0.10000,1.00000,1,  100.0,     6.800,     0.000,   1,1.0000
 16374,'4 ',     2.660,    -0.801,     1.760,    -1.760,1.01500, 16302,     8.055,   0.00000,   0.25400,   0.00000,   0.10000,1.00000,1,  100.0,     7.600,     0.000,   1,1.0000
 16375,'5 ',     1.487,    -0.801,     0.980,    -0.980,1.01500, 16302,     4.475,   0.00000,   0.25400,   0.00000,   0.10000,1.00000,1,  100.0,     4.250,     0.000,   1,1.0000
 16376,'6 ',     1.732,    -0.540,    -0.540,    -0.540,1.00000,     0,     5.370,   0.00000,   0.25400,   0.00000,   0.10000,1.00000,1,  100.0,     4.950,     0.000,   4,1.0000
 16377,'1 ',     3.150,     2.100,     2.100,    -2.100,1.07500,  1631,     9.570,   0.00000,   0.25400,   0.00000,   0.00000,1.00000,1,  100.0,     9.000,     0.000,   1,1.0000
 16378,'1 ',     0.559,    -0.530,    -0.530,    -0.680,1.04000,     0,     1.790,   0.00000,   0.25400,   0.00000,   0.00000,1.00000,1,  100.0,     1.598,     0.000,   1,1.0000
 16571,'1 ',    13.230,     8.770,     8.770,    -8.770,1.07500,  1651,    39.000,   0.00000,   0.25400,   0.00000,   0.00000,1.00000,1,  100.0,    37.800,     0.000,   4,1.0000
 16602,'1 ',     1.190,    -0.370,    -0.370,    -0.370,1.04000,     0,     3.580,   0.00000,   0.25400,   0.00000,   0.06000,1.00000,1,  100.0,     3.400,     0.000,   4,1.0000
 16602,'2 ',     0.595,    -0.560,    -0.560,    -0.730,1.04000,     0,     1.790,   0.00000,   0.25400,   0.00000,   0.06000,1.00000,1,  100.0,     1.700,     0.000,   1,1.0000
 16604,'2 ',     6.545,    -2.040,    -2.040,    -2.040,1.00000,     0,    19.690,   0.00000,   0.25400,   0.00000,   0.20000,1.00000,1,  100.0,    18.700,     0.000,   4,1.0000
 16604,'3 ',     0.735,    -0.230,    -0.230,    -0.230,1.00000,     0,     2.300,   0.00000,   0.25400,   0.00000,   0.00000,1.00000,1,  100.0,     2.100,     0.000,   2,1.0000
 16612,'1 ',     2.975,    -2.790,    -2.790,    -3.620,1.04000,     0,     8.950,   0.00000,   0.25400,   0.00000,   0.06000,1.00000,1,  100.0,     8.500,     0.000,   1,1.0000
 16873,'3 ',     8.000,     7.000,     7.000,    -1.000,1.07500,  1681,    11.500,   0.00000,   0.31700,   0.00000,   0.00000,1.00000,1,    7.0,     8.000,     2.000,   3,1.0000
 17004,'5 ',     0.693,    -0.220,    -0.220,    -0.220,1.04000,     0,     3.100,   0.00000,   0.25400,   0.00000,   0.20000,1.00000,1,  100.0,     1.980,     0.000,   4,1.0000
 17004,'6 ',     0.385,    -0.120,    -0.120,    -0.120,1.04000,     0,     1.500,   0.00000,   0.25400,   0.00000,   0.20000,1.00000,1,  100.0,     1.100,     0.000,   4,1.0000
 17004,'7 ',     1.190,    -0.370,    -0.370,    -0.370,1.04000,     0,     3.580,   0.00000,   0.25400,   0.00000,   0.20000,1.00000,1,  100.0,     3.400,     0.000,   2,1.0000
 17073,'3 ',    22.500,     6.175,     7.000,   -10.000,1.05000,  1701,    30.000,   0.00000,   0.25400,   0.00000,   0.00000,1.00000,1,    7.0,    22.500,     5.000,   3,1.0000
 17074,'4 ',    22.500,     6.175,     7.000,   -10.000,1.05000,  1701,    30.000,   0.00000,   0.25400,   0.00000,   0.00000,1.00000,1,    7.0,    22.500,     5.000,   3,1.0000
 17671,'1 ',    10.000,     6.175,     7.000,    -3.000,1.05000,  1701,    12.500,   0.00000,   0.19000,   0.00000,   0.00000,1.00000,1,    7.0,    10.000,     3.000,   3,1.0000
 17672,'2 ',    10.000,     6.175,     7.000,    -3.000,1.05000,  1701,    12.500,   0.00000,   0.19000,   0.00000,   0.00000,1.00000,1,    7.0,    10.000,     3.000,   3,1.0000
 17771,'1 ',    14.429,     9.590,     9.590,    -9.590,1.07500,  2771,    42.925,   0.00000,   0.25400,   0.00000,   0.00000,1.00000,1,  100.0,    41.225,     0.000,   4,1.0000
 18404,'1 ',     1.747,    -0.550,    -0.550,    -0.550,1.04000,     0,     5.739,   0.00000,   0.25400,   0.00000,   0.20000,1.00000,1,  100.0,     4.990,     0.000,   2,1.0000
 18802,'1 ',     1.050,    -0.330,    -0.330,    -0.330,1.04000,     0,     3.125,   0.00000,   0.25400,   0.00000,   0.07962,1.00000,1,  100.0,     3.000,     0.000,   1,1.0000
 19071,'1 ',     0.893,    -0.280,    -0.280,    -0.280,1.04000,     0,     2.685,   0.00000,   0.25400,   0.00000,   0.06000,1.00000,1,  100.0,     2.550,     0.000,   4,1.0000
 19071,'2 ',     0.595,    -0.560,    -0.560,    -0.730,1.04000,     0,     1.790,   0.00000,   0.25400,   0.00000,   0.06000,1.00000,1,  100.0,     1.700,     0.000,   4,1.0000
 19072,'1 ',     1.750,    -0.550,    -0.550,    -0.550,1.04000,     0,     7.050,   0.00000,   0.25400,   0.00000,   0.05640,1.00000,1,  100.0,     4.999,     0.000,   4,1.0000
 19072,'2 ',     1.575,    -0.490,    -0.490,    -0.490,1.04000,     0,     4.700,   0.00000,   0.25400,   0.00000,   0.05647,1.00000,1,  100.0,     4.500,     0.000,   4,1.0000
 19073,'1 ',     7.350,    -6.900,    -6.900,    -8.950,1.04000,     0,    21.875,   0.00000,   0.25400,   0.00000,   0.07962,1.00000,1,  100.0,    21.000,     0.000,   4,1.0000
 19371,'1 ',    12.180,    -5.360,    -5.360,    -5.360,1.07500,  1931,    36.500,   0.00000,   0.25400,   0.00000,   0.00000,1.00000,1,  100.0,    34.800,     0.000,   4,1.0000
 19471,'1 ',   110.000,    75.000,    75.000,   -50.000,1.07500,  1941,   153.000,   0.00000,   0.18800,   0.00000,   0.00000,1.00000,1,   75.0,   130.000,    60.000,   4,1.0000
 19771,'1 ',    14.875,     5.950,     5.950,    -9.940,1.07500,  1971,    45.000,   0.00000,   0.25400,   0.00000,   0.00000,1.00000,1,  100.0,    42.500,     0.000,   4,1.0000
 19902,'1 ',    14.490,     9.660,     9.660,    -9.660,1.07500,  1991,    41.400,   0.00000,   0.25400,   0.00000,   0.00000,1.00000,1,  100.0,    41.400,     0.000,   1,1.0000
 21004,'1 ',     2.625,    -0.820,    -0.820,    -0.820,1.04000,     0,     8.625,   0.00000,   0.25400,   0.00000,   0.20000,1.00000,1,  100.0,     7.500,     0.000,   4,1.0000
 21004,'2 ',     0.175,    -0.050,    -0.050,    -0.050,1.04000,     0,     0.895,   0.00000,   0.25400,   0.00000,   0.20000,1.00000,1,  100.0,     0.500,     0.000,   2,1.0000
 21402,'1 ',     0.595,    -0.560,    -0.560,    -0.730,1.04000,     0,     1.790,   0.00000,   0.25400,   0.00000,   0.06000,1.00000,1,  100.0,     1.700,     0.000,   1,1.0000
 21802,'1 ',     0.595,    -0.190,    -0.190,    -0.190,1.04000,     0,     1.790,   0.00000,   0.25400,   0.00000,   0.06000,1.00000,1,  100.0,     1.700,     0.000,   4,1.0000
 21802,'2 ',     1.050,    -0.990,    -0.990,    -1.280,1.04000,     0,     3.125,   0.00000,   0.25400,   0.00000,   0.07962,1.00000,1,  100.0,     3.000,     0.000,   1,1.0000
 22204,'1 ',     1.617,    -0.500,    -0.500,    -0.500,1.04000,     0,     5.313,   0.00000,   0.25400,   0.00000,   0.20000,1.00000,1,  100.0,     4.620,     0.000,   3,1.0000
 22204,'2 ',     2.079,    -0.650,    -0.650,    -0.650,1.04000,     0,     6.831,   0.00000,   0.25400,   0.00000,   0.20000,1.00000,1,  100.0,     5.940,     0.000,   3,1.0000
 22204,'3 ',     2.082,    -0.650,    -0.650,    -0.650,1.04000,     0,     6.868,   0.00000,   0.25400,   0.00000,   0.20000,1.00000,1,  100.0,     5.950,     0.000,   4,1.0000
 22204,'4 ',     1.487,    -0.460,    -0.460,    -0.460,1.04000,     0,     5.000,   0.00000,   0.20000,   0.00000,   0.20000,1.00000,1,  100.0,     4.250,     0.000,   4,1.0000
 22371,'1 ',    20.825,     8.330,     8.330,   -13.880,1.07500,  2231,    62.650,   0.00000,   0.25400,   0.00000,   0.00000,1.00000,1,  100.0,    59.500,     0.000,   4,1.0000
 22404,'1 ',     0.893,    -0.280,    -0.280,    -0.280,1.04000,     0,     2.685,   0.00000,   0.20000,   0.00000,   0.20000,1.00000,1,  100.0,     2.550,     0.000,   4,1.0000
 22404,'2 ',     1.487,    -0.460,    -0.460,    -0.460,1.04000,     0,     5.000,   0.00000,   0.20000,   0.00000,   0.20000,1.00000,1,  100.0,     4.250,     0.000,   4,1.0000
 22671,'1 ',    52.100,     0.000,    32.600,   -22.700,1.07500,  2261,    62.000,   0.00000,   0.25400,   0.00000,   0.00000,1.00000,0,   32.6,    52.100,     1.200,   3,1.0000
 22672,'2 ',    52.100,     0.000,    32.600,   -22.700,1.07500,  2261,    62.000,   0.00000,   0.25400,   0.00000,   0.00000,1.00000,0,   32.6,    52.100,     1.200,   3,1.0000
 22802,'1 ',     0.893,    -0.840,    -0.840,    -1.090,1.04000,     0,     2.685,   0.00000,   0.25400,   0.00000,   0.06000,1.00000,1,  100.0,     2.550,     0.000,   1,1.0000
 26702,'1 ',    11.034,     7.350,     7.350,    -7.350,1.07500,  2671,    32.500,   0.00000,   0.25400,   0.00000,   0.00000,1.00000,1,  100.0,    31.525,     0.000,   4,1.0000
 26703,'1 ',     9.345,     6.230,     6.230,    -6.230,1.07500,  2671,    26.700,   0.00000,   0.25400,   0.00000,   0.00000,1.00000,1,  100.0,    26.700,     0.000,   4,1.0000
 27204,'5 ',     4.000,     1.000,     1.000,    -1.000,1.04000,     0,     5.000,   0.00000,   0.30000,   0.00000,   0.10000,1.00000,1,    1.0,     4.000,     0.000,   3,1.0000
 27371,'1 ',     4.480,     1.820,     1.820,    -3.010,1.07500,  2731,    15.215,   0.00000,   0.25400,   0.00000,   0.00000,1.00000,1,  100.0,    12.800,     0.000,   4,1.0000
 27372,'2 ',     5.950,     2.380,     2.380,    -3.990,1.07500,  2731,    18.750,   0.00000,   0.25400,   0.00000,   0.00000,1.00000,1,  100.0,    17.000,     0.000,   4,1.0000
 27402,'1 ',     1.487,    -1.400,    -1.400,    -1.810,1.04000,     0,     4.475,   0.00000,   0.25400,   0.00000,   0.06000,1.00000,1,  100.0,     4.250,     0.000,   1,1.0000
 27471,'1 ',    57.000,     0.000,    42.000,    -3.000,1.07500,  2741,    75.000,   0.00000,   0.20300,   0.00000,   0.00000,1.00000,0,   42.0,    57.000,    25.000,   3,1.0000
 27472,'2 ',    57.000,     0.000,    40.000,    -3.000,1.07500,  2741,    75.000,   0.00000,   0.20300,   0.00000,   0.00000,1.00000,0,   40.0,    57.000,    25.000,   3,1.0000
 27473,'3 ',   116.000,    82.000,    82.000,   -48.000,1.07500,  2742,   150.000,   0.00000,   0.18500,   0.00000,   0.00000,1.00000,1,   82.0,   116.000,    30.000,   3,1.0000
 27804,'1 ',     1.155,    -0.360,    -0.360,    -0.360,1.04000,     0,     3.795,   0.00000,   0.25400,   0.00000,   0.20000,1.00000,1,  100.0,     3.300,     0.000,   4,1.0000
 27804,'2 ',     0.236,    -0.070,    -0.070,    -0.070,1.04000,     0,     0.776,   0.00000,   0.25400,   0.00000,   0.20000,1.00000,1,  100.0,     0.675,     0.000,   2,1.0000
 28002,'1 ',     5.250,    -2.170,    -2.170,    -2.170,1.00000,     0,    17.250,   0.00000,   0.25400,   0.00000,   0.10000,1.00000,1,  100.0,    15.000,     0.000,   4,1.0000
 28571,'1 ',   400.000,   110.128,   282.100,  -196.800,1.07500,  1062,   535.500,   0.00000,   0.24500,   0.00000,   0.00000,1.00000,1,  282.1,   450.470,   110.100,   4,1.0000
 28804,'2 ',     8.855,    -2.760,    -2.760,    -2.760,1.04000,     0,    28.578,   0.00000,   0.20000,   0.00000,   0.20000,1.00000,1,  100.0,    25.300,     0.000,   4,1.0000
 28814,'1 ',     3.675,    -1.150,    -1.150,    -1.150,1.04000,     0,    12.019,   0.00000,   0.25400,   0.00000,   0.20000,1.00000,1,  100.0,    10.500,     0.000,   2,1.0000
 29671,'ST',    90.000,    42.414,    90.000,   -47.000,1.07500,  2562,   150.000,   0.00000,   0.18800,   0.00000,   0.00000,1.00000,1,   90.0,   120.000,    40.000,   4,1.0000
 29672,'CT',   200.000,    81.529,   173.000,  -106.000,1.07500,  2562,   288.000,   0.00000,   0.17900,   0.00000,   0.00000,1.00000,1,  173.0,   230.000,   138.000,   4,1.0000
 29673,'2 ',   380.000,   117.346,   249.000,  -100.000,1.07500,  2562,   473.000,   0.00500,   0.25600,   0.00000,   0.00000,1.00000,1,  249.0,   400.000,   257.000,   4,1.0000
 30671,'1 ',    15.000,    13.000,    13.000,    -4.000,1.07500,  3061,    21.400,   0.00000,   0.20300,   0.00000,   0.00000,1.00000,1,   13.0,    15.000,     4.000,   3,1.0000
 30671,'2 ',     4.000,     3.000,     3.000,    -1.000,1.07500,  3061,     5.700,   0.00000,   0.17800,   0.00000,   0.00000,1.00000,1,   13.0,     4.000,     1.000,   3,1.0000
 31002,'1 ',     0.893,    -0.280,    -0.280,    -0.280,1.04000,     0,     2.685,   0.00000,   0.25400,   0.00000,   0.06000,1.00000,1,  100.0,     2.550,     0.000,   1,1.0000
 31002,'2 ',     0.298,    -0.280,    -0.280,    -0.360,1.04000,     0,     0.895,   0.00000,   0.25400,   0.00000,   0.06000,1.00000,1,  100.0,     0.850,     0.000,   1,1.0000
 31004,'1 ',     0.893,    -0.280,    -0.280,    -0.280,1.04000,     0,     2.685,   0.00000,   0.25400,   0.00000,   0.20000,1.00000,1,  100.0,     2.550,     0.000,   2,1.0000
 31271,'1 ',   380.000,   134.816,   200.000,  -114.000,1.07500,  3122,   500.000,   0.00000,   0.27000,   0.00000,   0.00000,1.00000,1,  200.0,   409.900,   163.000,   4,1.0000
 32404,'1 ',     4.100,     0.000,     1.000,    -1.000,1.04000,     0,     4.800,   0.00000,   0.25000,   0.00000,   0.06000,1.00000,0,    1.0,     4.100,     0.000,   2,1.0000
 32604,'1 ',     0.000,     1.000,     1.000,    -1.000,1.05000,     0,     8.500,   0.00000,   0.14800,   0.00000,   0.10000,1.00000,1,    1.0,     7.500,     0.000,   5,1.0000
 33004,'1 ',     3.272,    -1.020,    -1.020,    -1.020,1.04000,     0,     9.845,   0.00000,   0.25400,   0.00000,   0.20000,1.00000,1,  100.0,     9.350,     0.000,   2,1.0000
 35002,'1 ',     1.750,    -1.640,    -1.640,    -2.130,1.04000,     0,     6.045,   0.00000,   0.25400,   0.00000,   0.06717,1.00000,1,  100.0,     5.000,     0.000,   2,1.0000
 35074,'4 ',    90.000,    60.000,    60.000,   -20.000,1.07500,  3501,   121.100,   0.00500,   0.23000,   0.00000,   0.00000,1.00000,1,   60.0,   100.000,    25.000,   3,1.0000
 35771,'1 ',   400.000,    94.264,   250.000,   -80.000,1.07500,  3572,   500.000,   0.00000,   0.22500,   0.00000,   0.00000,1.00000,1,  250.0,   442.960,   222.000,   1,1.0000
 35802,'1 ',     0.893,    -0.280,    -0.280,    -0.280,1.04000,     0,     2.685,   0.00000,   0.25400,   0.00000,   0.06000,1.00000,1,  100.0,     2.550,     0.000,   4,1.0000
 35802,'2 ',     0.893,    -0.280,    -0.280,    -0.280,1.04000,     0,     2.685,   0.00000,   0.25400,   0.00000,   0.06000,1.00000,1,  100.0,     2.550,     0.000,   4,1.0000
 35802,'3 ',     1.190,    -1.120,    -1.120,    -1.450,1.04000,     0,     3.600,   0.00000,   0.25400,   0.00000,   0.05400,1.00000,1,  100.0,     3.400,     0.000,   1,1.0000
 35804,'1 ',     5.250,    -1.640,    -1.640,    -1.640,1.04000,     0,    17.250,   0.00000,   0.25400,   0.00000,   0.20000,1.00000,1,  100.0,    15.000,     0.000,   4,1.0000
 35804,'2 ',     1.743,    -0.540,    -0.540,    -0.540,1.04000,     0,     5.727,   0.00000,   0.25400,   0.00000,   0.20000,1.00000,1,  100.0,     4.980,     0.000,   4,1.0000
 35804,'3 ',     4.158,    -1.300,    -1.300,    -1.300,1.04000,     0,    13.662,   0.00000,   0.25400,   0.00000,   0.20000,1.00000,1,  100.0,    11.880,     0.000,   4,1.0000
 35804,'6 ',     1.785,    -0.560,    -0.560,    -0.560,1.04000,     0,     5.370,   0.00000,   0.25400,   0.00000,   0.20000,1.00000,1,  100.0,     5.100,     0.000,   2,1.0000
 38002,'1 ',     0.595,    -0.560,    -0.560,    -0.730,1.04000,     0,     1.790,   0.00000,   0.25400,   0.00000,   0.06000,1.00000,1,  100.0,     1.700,     0.000,   1,1.0000
 38204,'1 ',     3.675,    -1.150,    -1.150,    -1.150,1.04000,     0,    12.019,   0.00000,   0.25400,   0.00000,   0.20000,1.00000,1,  100.0,    10.500,     0.000,   4,1.0000
...